295

O    1.35754345    -0.40065806    1.73553904
C    3.33354345    0.75334194    2.23853904
C    3.35254345    -1.69665806    1.98553904
C    4.74254345    -1.70065806    2.10553904
C    17.70054345    0.45834194    -2.01646096
O    7.50254345    -6.52765806    1.78453904
C    5.50954345    -5.38265806    2.24653904
C    7.62254345    -4.14965806    1.96953904
C    6.93354345    -2.93765806    2.03353904
C    17.69354345    2.90734194    -2.25646096
O    -12.00845655    1.85334194    2.47653904
C    9.74054345    -0.43065806    1.95553904
C    7.61454345    0.77534194    2.27653904
C    6.91254345    -0.42465806    2.17953904
C    16.95654345    4.15734194    -2.26746096
O    0.13554345    3.22034194    1.72353904
C    -1.85645655    2.09134194    2.21653904
C    -1.83445655    4.54634194    1.96953904
C    -3.22345655    4.57534194    2.09253904
C    14.81154345    5.35034194    -2.04946096
O    4.97654345    -9.37565806    1.72553904
C    -3.92245655    8.27234194    2.22553904
C    -6.05745655    7.07334194    1.92553904
C    -5.38945655    5.85134194    2.00853904
C    -2.63045655    17.88034194    -2.03846096
O    -8.27645655    1.11234194    2.51453904
C    -8.24045655    3.39034194    1.96453904
C    -6.13745655    2.15434194    2.31453904
C    -5.41045655    3.33834194    2.18653904
C    -19.11545655    -0.49665806    1.97753904
O    -1.90645655    -0.58665806    -1.80946096
C    -1.93245655    1.69934194    -2.32446096
C    -4.04245655    0.45834194    -2.01646096
C    -4.76545655    1.64534194    -2.12146096
O    -19.14545655    1.79834194    2.44253904
O    -10.31345655    1.52734194    -2.59846096
C    -8.32245655    0.40434194    -2.09046096
C    -8.34445655    2.85734194    -2.33546096
C    -6.95545655    2.88434194    -2.20646096
C    3.32654345    -16.67265806    2.27653904
O    -4.28045655    7.75534194    -2.50346096
C    -6.25545655    6.57934194    -2.04246096
C    -4.12145655    5.38134194    -2.33946096
C    -4.78645655    4.15734194    -2.26746096
O    1.35254345    -15.53165806    1.72953904
O    1.82654345    0.16534194    -1.83446096
C    1.82354345    -2.12465806    -2.33546096
C    3.94854345    -0.91565806    -2.02046096
C    4.65354345    -2.11565806    -2.11446096
O    -1.88945655    18.92234194    -1.82546096
O    10.19954345    -2.08965806    -2.59146096
C    8.23254345    -0.94265806    -2.03846096
C    8.20854345    -3.38865806    -2.32546096
C    6.82054345    -3.39165806    -2.19046096
O    19.83754345    -0.58665806    -1.80946096
O    4.07954345    -8.21665806    -2.53446096
C    6.05754345    -7.07265806    -2.01546096
C    3.94754345    -5.84065806    -2.35146096
C    4.63254345    -4.63065806    -2.26946096
C    -16.23345655    -5.38265806    2.24653904
O    -0.66045655    1.60034194    -2.54846096
C    -2.64045655    0.45434194    -2.04046096
C    -2.65745655    2.89834194    -2.35046096
C    -4.04945655    2.90734194    -2.25646096
O    -14.24045655    -6.52765806    1.78453904
O    -6.80745655    7.72534194    -1.79746096
C    -4.82145655    6.59334194    -2.30946096
C    -6.93145655    5.35034194    -2.04946096
C    -6.23945655    4.14634194    -2.17846096
C    19.81054345    1.69934194    -2.32446096
O    -9.04145655    -0.65365806    -1.89246096
C    -9.04745655    1.64434194    -2.34946096
C    -6.92145655    0.42934194    -2.06746096
C    -6.21845655    1.63134194    -2.12246096
C    9.00654345    -16.73165806    2.21653904
O    0.55454345    -2.01065806    -2.56646096
C    2.54754345    -0.88865806    -2.05346096
C    2.52854345    -3.33565806    -2.36146096
C    3.91854345    -3.36665806    -2.25946096
O    10.99854345    -15.60165806    1.72353904
O    6.57854345    -8.22565806    -1.74046096
C    4.62854345    -7.06565806    -2.31846096
C    6.75654345    -5.85565806    -2.01846096
C    6.08554345    -4.64165806    -2.16546096
O    21.08254345    1.60034194    -2.54846096
O    8.97354345    0.09934194    -1.82546096
C    8.93454345    -2.18865806    -2.33046096
C    6.83254345    -0.94065806    -2.01046096
C    6.10454345    -2.12765806    -2.09546096
C    -9.03945655    16.69834194    -2.33546096
O    2.59754345    1.79834194    2.44253904
C    2.62754345    -0.49665806    1.97753904
C    4.73554345    0.75434194    2.25953904
C    5.45954345    -0.43565806    2.19253904
C    -6.91545655    17.90734194    -2.02046096
O    -10.73445655    -0.31065806    1.72153904
C    9.01554345    0.80334194    2.24553904
C    9.03754345    -1.64165806    1.92853904
C    7.64854345    -1.67565806    2.03853904
O    17.46254345    7.75534194    -2.50346096
O    4.97354345    -6.53965806    2.48553904
C    6.94454345    -5.37465806    1.98753904
C    4.81154345    -4.16765806    2.24253904
C    5.48054345    -2.94865806    2.12153904
C    -1.92845655    16.63434194    -2.33046096
O    -1.13545655    1.02934194    2.39853904
C    -1.13245655    3.33234194    1.96353904
C    -3.25745655    2.11834194    2.24453904
C    -3.96045655    3.32334194    2.18453904
C    -4.03045655    17.88234194    -2.01046096
O    -9.51145655    3.29034194    1.72953904
C    -7.53745655    2.15034194    2.27653904
C    -7.51545655    4.58834194    1.92253904
C    -6.12445655    4.59934194    2.02753904
C    16.92154345    6.59334194    -2.30946096
O    7.48854345    -9.40565806    2.47653904
C    -5.35545655    8.28634194    1.94453904
C    -3.24545655    7.04434194    2.22653904
C    -3.93645655    5.84034194    2.10453904
C    19.10254345    0.45434194    -2.04046096
CU    -5.54745655    9.17134194    -2.12946096
CU    10.82954345    -0.28465806    -2.23446096
CU    -0.04545655    -0.20865806    -2.19146096
CU    -10.13745655    1.49334194    2.11753904
CU    6.24254345    -7.96165806    2.12253904
CU    0.73854345    1.41134194    2.06553904
C    -12.72745655    0.80334194    2.24553904
O    11.00854345    -0.31065806    1.72153904
C    5.50754345    -10.53665806    1.94453904
O    -3.37445655    9.41734194    2.47653904
C    -12.00245655    -0.43065806    1.95553904
O    9.73454345    1.85334194    2.47653904
C    6.94054345    -10.55065806    2.22553904
O    -5.88645655    9.44734194    1.72553904
O    -6.78445655    10.60634194    -2.53446096
O    -4.28545655    10.59734194    -1.74046096
O    12.70154345    -0.65365806    -1.89246096
O    11.42954345    1.52734194    -2.59846096
C    -14.12845655    0.77534194    2.27653904
C    4.80554345    -11.74965806    1.92553904
C    -12.70545655    -1.64165806    1.92853904
C    7.61854345    -11.77865806    2.22653904
C    -6.23445655    11.75734194    -2.31846096
C    -4.80545655    11.75034194    -2.01546096
C    13.42054345    0.40434194    -2.09046096
C    12.69554345    1.64434194    -2.34946096
C    -14.83145655    -0.42465806    2.17953904
C    19.08554345    2.89834194    -2.35046096
C    5.47354345    -12.97165806    2.00853904
C    17.62154345    5.38134194    -2.33946096
C    -14.09445655    -1.67565806    2.03853904
O    14.93554345    7.72534194    -1.79746096
C    6.92654345    -12.98265806    2.10453904
C    15.48754345    6.57934194    -2.04246096
C    -6.91545655    12.98234194    -2.35146096
C    -4.10645655    12.96734194    -2.01846096
C    14.82154345    0.42934194    -2.06746096
C    13.39954345    2.85734194    -2.33546096
C    -16.28345655    -0.43565806    2.19253904
C    4.73854345    -14.22365806    2.02753904
C    -14.81045655    -2.93765806    2.03353904
C    7.64054345    -14.24665806    2.09253904
O    -20.38545655    -0.40065806    1.73553904
C    -6.23045655    14.19234194    -2.26946096
O    2.58654345    -17.71065806    2.51453904
C    -4.77745655    14.18134194    -2.16546096
O    -16.76945655    -6.53965806    2.48553904
C    15.52554345    1.63134194    -2.12246096
C    14.78754345    2.88434194    -2.20646096
O    9.72754345    -17.79365806    2.39853904
C    -17.00045655    -1.70065806    2.10553904
C    -17.00745655    0.75434194    2.25953904
C    3.34754345    -14.23465806    1.92253904
C    5.45254345    -15.48365806    2.18653904
C    -16.26345655    -2.94865806    2.12153904
C    -14.12045655    -4.14965806    1.96953904
C    6.90354345    -15.49965806    2.18453904
C    9.02854345    -14.27665806    1.96953904
C    -6.94445655    15.45634194    -2.25946096
C    -4.04245655    15.43134194    -2.19046096
C    16.97754345    1.64534194    -2.12146096
C    15.50354345    4.14634194    -2.17846096
C    -18.39145655    -1.69665806    1.98553904
C    -18.40945655    0.75334194    2.23853904
O    -10.30845655    16.81234194    -2.56646096
C    2.62254345    -15.43265806    1.96453904
C    -8.31545655    17.93334194    -2.05346096
C    4.72554345    -16.66865806    2.31453904
C    -16.93145655    -4.16765806    2.24253904
C    -14.79845655    -5.37465806    1.98753904
O    -9.03645655    18.98834194    -1.83446096
C    7.60654345    -16.70465806    2.24453904
C    9.73154345    -15.48965806    1.96353904
O    -0.66345655    16.73334194    -2.59146096
C    -8.33445655    15.48734194    -2.36146096
C    -6.20945655    16.70634194    -2.11446096
C    -2.65445655    15.43434194    -2.32546096
C    -4.75845655    16.69534194    -2.09546096
H    2.83054345    -2.62665806    1.89953904
H    17.17554345    -0.46865806    -1.91546096
H    8.69054345    -4.14165806    1.90553904
H    7.07354345    1.69334194    2.37553904
H    -1.29545655    5.46634194    1.87853904
H    13.74554345    5.33734194    -1.95446096
H    -7.12445655    7.08434194    1.84553904
H    -5.61445655    1.23034194    2.44353904
H    -4.56745655    -0.46865806    -1.91546096
H    -18.58945655    2.55234194    2.60153904
H    -10.68645655    2.38734194    -2.75146096
H    -8.88145655    3.77734194    -2.42446096
H    -3.05445655    5.39334194    -2.41846096
H    0.99654345    -14.67165806    1.53953904
H    4.48754345    0.00234194    -1.92146096
H    -0.97345655    18.67934194    -1.89646096
H    8.72854345    -4.31865806    -2.42746096
H    20.75454345    -0.34965806    -1.88246096
H    3.15554345    -8.09665806    -2.72046096
H    2.88154345    -5.83565806    -2.44046096
H    -2.13245655    3.82634194    -2.44446096
H    -13.31145655    -6.40565806    1.62653904
H    -7.99745655    5.33734194    -1.95446096
H    -9.96145655    -0.42765806    -1.95646096
H    -6.38045655    -0.49165806    -2.00646096
H    1.98954345    -4.25465806    -2.46146096
H    11.37054345    -14.74065806    1.57453904
H    5.91054345    -8.89765806    -1.80346096
H    7.82054345    -5.85965806    -1.90546096
H    21.44254345    2.46234194    -2.72046096
H    6.31054345    -0.01065806    -1.92246096
H    5.25954345    1.68434194    2.32853904
H    -6.37545655    18.82534194    -1.92146096
H    9.57754345    -2.55965806    1.82353904
H    18.39254345    7.64834194    -2.66646096
H    3.74554345    -4.17465806    2.33253904
H    -3.79845655    1.19834194    2.31253904
H    -4.55245655    18.81234194    -1.92246096
H    -8.04045655    5.51434194    1.80753904
H    -2.17945655    7.03134194    2.32353904
H    11.38054345    -1.16765806    1.54553904
H    -2.44745655    9.29434194    2.64453904
H    9.16554345    2.59334194    2.65253904
H    -6.81545655    9.34334194    1.55453904
H    -14.66945655    1.69334194    2.37553904
H    3.73854345    -11.73865806    1.84553904
H    -12.16545655    -2.55965806    1.82353904
H    8.68354345    -11.79165806    2.32353904
H    19.61054345    3.82634194    -2.44446096
H    18.68854345    5.39334194    -2.41846096
H    15.59154345    8.41134194    -1.85046096
H    -7.98145655    12.98734194    -2.44046096
H    -3.04245655    12.96334194    -1.90546096
H    15.36254345    -0.49165806    -2.00646096
H    12.86154345    3.77734194    -2.42446096
H    -20.74545655    -1.26665806    1.58053904
H    3.14154345    -18.45765806    2.70453904
H    -17.70045655    -6.43165806    2.63953904
H    9.15954345    -18.53865806    2.55353904
H    -16.48345655    1.68434194    2.32853904
H    2.82354345    -13.30865806    1.80753904
H    -13.05245655    -4.14165806    1.90553904
H    9.56754345    -13.35665806    1.87853904
H    -18.91345655    -2.62665806    1.89953904
H    -10.67845655    15.95434194    -2.73646096
H    5.24854345    -17.59265806    2.44353904
H    -17.99745655    -4.17465806    2.33253904
H    -9.95645655    18.76334194    -1.91146096
H    7.06454345    -17.62465806    2.31253904
H    -0.30745655    15.87034194    -2.76646096
H    -8.87345655    14.56834194    -2.46146096
H    -2.13445655    14.50434194    -2.42746096
O    -8.88745655    -11.04665806    0.53653904
N    -5.00745655    -7.17265806    0.30753904
N    -2.20945655    -12.15665806    1.83953904
C    -4.20045655    -9.27665806    0.38553904
C    -5.63645655    -9.32865806    0.41753904
C    -3.26045655    -10.43465806    0.45153904
C    -6.10845655    -7.99465806    0.36553904
C    -3.87045655    -7.94365806    0.31853904
C    -3.16945655    -11.06065806    1.84253904
C    -6.56445655    -10.38365806    0.47953904
C    -7.47345655    -7.69665806    0.37053904
C    -7.91945655    -10.08665806    0.47953904
C    -8.36945655    -8.75065806    0.42853904
H    -2.24845655    -10.13165806    0.14253904
H    -3.57945655    -11.21165806    -0.26746096
H    -2.88745655    -7.48265806    0.27053904
H    -5.03045655    -6.16765806    0.24853904
H    -4.19145655    -11.33665806    2.17953904
H    -2.81645655    -10.28965806    2.54853904
H    -6.22145655    -11.42165806    0.51953904
H    -7.83245655    -6.66665806    0.32953904
H    -9.44545655    -8.57265806    0.43753904
H    -2.13345655    -12.54465806    2.77953904
H    -2.57545655    -12.91865806    1.26653904
H    -8.45445655    -11.90765806    0.56653904